*Heading
** Job name: Job-1 Model name: Model-1
** Generated by: Abaqus/CAE 2016
*Preprint, echo=NO, model=NO, history=NO, contact=NO
**
** PARTS
**
*Part, name=sattelit
*End Part
**  
**
** ASSEMBLY
**
*Assembly, name=Assembly
**  
*Instance, name=sattelit-1, part=sattelit
*Node
      1, 0.0700000003, -0.00200000009, -0.0700000003
      2, 0.0700000003, -0.00200000009, 0.0700000003
      3, -0.0700000003, -0.00200000009, 0.0700000003
      4, -0.0700000003, -0.00200000009, -0.0700000003
      5,  0.100000001, 0.00499999989, 0.0850000009
      6,  0.100000001, 0.00499999989,  0.100000001
      7,  0.714999974, 0.00499999989,  0.100000001
      8,  0.714999974, 0.00499999989, -0.100000001
      9,  0.100000001, 0.00499999989, -0.100000001
     10,  0.100000001, 0.00499999989, -0.0850000009
     11,  0.105943635, 0.00499999989, -0.0850000009
     12,  0.105943635, 0.00499999989, 0.0850000009
     13,  0.509056389, 0.00499999989, -0.0850000009
     14,  0.514999986, 0.00499999989, -0.0850000009
     15,  0.514999986, 0.00499999989, 0.0850000009
     16,  0.509056389, 0.00499999989, 0.0850000009
     17,  0.305943638, 0.00499999989, -0.0850000009
     18,  0.311887264, 0.00499999989, -0.0850000009
     19,  0.311887264, 0.00499999989, 0.0850000009
     20,  0.305943638, 0.00499999989, 0.0850000009
** ... 1150 like lines cut
*Element, type=C3D10
  1,   38,  204,  102,  101,  222,  221,  220,  224,  223,  225
  2,   37,  102,   51,  124,  228,  227,  226,  230,  229,  231
  3,   38,   51,  102,  204,  232,  227,  220,  222,  233,  221
  4,  130,   19,   75,  205,  236,  235,  234,  238,  237,  239
  5,   74,  130,   19,   75,  241,  236,  240,  242,  234,  235
  6,   51,  102,  204,  124,  227,  221,  233,  231,  229,  243
  7,  205,  193,   19,  150,  245,  244,  237,  247,  246,  248
  8,  205,  130,   64,  131,  238,  250,  249,  252,  251,  253
  9,  204,  102,  101,  124,  221,  225,  223,  243,  229,  254
 10,   38,   37,  102,   51,  255,  228,  220,  232,  226,  227
 11,   53,  206,  122,  123,  258,  257,  256,  260,  259,  261
 12,  207,   34,   55,  201,  264,  263,  262,  266,  265,  267
 13,  207,  122,  121,   55,  270,  269,  268,  262,  271,  272
 14,   34,  178,  201,  207,  274,  273,  265,  264,  275,  266
 15,  207,  201,  121,   99,  266,  276,  268,  278,  277,  279
 16,   98,  121,  208,   99,  282,  281,  280,  283,  279,  284
 17,  209,  147,   97,  198,  287,  286,  285,  289,  288,  290
 18,  209,  208,  210,   98,  293,  292,  291,  294,  280,  295
 19,  148,  208,  209,   98,  297,  293,  296,  298,  280,  294
 20,   53,   55,  122,   33,  299,  271,  256,  301,  300,  302
** ... 494 like lines cut
*Nset, nset=Set-1, generate
    1,  1170,     1
*Elset, elset=Set-1, generate
   1,  514,    1
** Section: Section-1
*Solid Section, elset=Set-1, material=Material-1
,
*End Instance
**  
*End Assembly
** 
** MATERIALS
** 
*Material, name=Material-1
*Density
1190.,
*Elastic
 3.3e+09, 0.36
** ----------------------------------------------------------------
** 
** STEP: Step-1
** 
*Step, name=Step-1, nlgeom=NO
*Static
1., 1., 1e-05, 1.
** 
** OUTPUT REQUESTS
** 
*Restart, write, frequency=0
** 
** FIELD OUTPUT: F-Output-1
** 
*Output, field, variable=PRESELECT
** 
** HISTORY OUTPUT: H-Output-1
** 
*Output, history, variable=PRESELECT
*End Step
*Step, name=Step-2, nlgeom=NO
** modified Inputfile -> Export MASS and STIFFNESS matrices
** for export a consistent mass matrix MASS=CONSISTENT for lumped only MASS
*MATRIX GENERATE, STIFFNESS, MASS
*MATRIX OUTPUT, STIFFNESS, MASS, FORMAT=COORDINATE
*End Step
